LAMMPS (28 Mar 2023)
Loaded 1 plugins from C:\Users\asus\AppData\Local\LAMMPS 64-bit 28Mar2023\plugins
units       real
atom_style  full
region      box block 0 15 0 15 0 15
create_box  2 box bond/types 1 angle/types 1             extra/bond/per/atom 2 extra/angle/per/atom 1 extra/special/per/atom 2
Created orthogonal box = (0 0 0) to (15 15 15)

mass        1 15.9994
mass        2 1.008

pair_style   lj/cut/coul/cut 8.0
pair_coeff   1 1 0.1521 3.1507
pair_coeff   2 2 0.0    1.0

bond_style   zero
bond_coeff   1 0.9574

angle_style  zero
angle_coeff  1 104.52

molecule     water tip3p.mol
Read molecule template water:
  1 molecules
  0 fragments
  3 atoms with max type 2
  2 bonds with max type 1
  1 angles with max type 1
  0 dihedrals with max type 0
  0 impropers with max type 0
create_atoms 0 random 30 32564 NULL mol water 25367 #overlap 1.33
Created 90 atoms

fix          rigid all shake 0.001 10 10000 b 1 a 1
Finding SHAKE clusters ...
       0 = # of size 2 clusters
       0 = # of size 3 clusters
       0 = # of size 4 clusters
      30 = # of frozen angles
  find clusters CPU = 0.001 seconds
#minimize     0.0 0.0 1000 10000
run 0 post no
Generated 1 of 1 mixed pair_coeff terms from geometric mixing rule
SHAKE stats (type/ave/delta/count) on step 0
Bond:   1   0.957198  2.33147e-15       60
Angle:  1   104.52    1.84741e-13       30
Step          Temp          E_pair         E_mol          TotEng         Press
0   0              62575.415      0              62575.415      1.3461441e+154
Loop time of 0 on 1 procs for 0 steps with 90 atoms

reset_timestep 0
velocity    all create 300.0 5463576
fix         1 all npt temp 300.0 300.0 100.0 iso 0.0 0.0 1000.0
fix         4 all temp/rescale 1 300.0 300.0 0.1 1.0
#fix      integrate all nvt temp 300 300 1.0

dump         1 all custom 100 water.lammpstrj id type x y z q
thermo_style custom step temp press etotal pe
thermo 100
timestep    0.01
run         2000000
Generated 1 of 1 mixed pair_coeff terms from geometric mixing rule
SHAKE stats (type/ave/delta/count) on step 0
Bond:   1   0.9574    2.9976e-15        60
Angle:  1   104.52    3.41061e-13       30
Step          Temp          Press          TotEng         PotEng
0   300            4817662.2      62606.16       62553.4
Averages over the last 50 of 100 rows, steps 5000 to 9900:
Temp Press TotEng PotEng
300.041 -1417.21 -206.856 -259.623
Bond:   1   0.957401  1.021e-10         60
Angle:  1   104.52    4.02163e-09       30
SHAKE stats (type/ave/delta/count) on step 20000
Bond:   1   0.9574    1.12932e-12       60
Angle:  1   104.52    1.11896e-10       30
SHAKE stats (type/ave/delta/count) on step 30000
Bond:   1   0.9574    7.07545e-13       60
Angle:  1   104.52    5.67297e-11       30
SHAKE stats (type/ave/delta/count) on step 40000
Bond:   1   0.9574    7.81819e-13       60
Angle:  1   104.52    4.61142e-11       30
SHAKE stats (type/ave/delta/count) on step 50000
Bond:   1   0.9574    4.8006e-13        60
Angle:  1   104.52    3.14628e-11       30
SHAKE stats (type/ave/delta/count) on step 60000
Bond:   1   0.957399  1.03439e-12       60
Angle:  1   104.52    5.22107e-11       30
SHAKE stats (type/ave/delta/count) on step 70000
Bond:   1   0.9574    1.19704e-12       60
Angle:  1   104.52    7.15801e-11       30
SHAKE stats (type/ave/delta/count) on step 80000
Bond:   1   0.9574    8.88956e-13       60
Angle:  1   104.52    6.48299e-11       30
SHAKE stats (type/ave/delta/count) on step 90000
Bond:   1   0.9574    8.40217e-13       60
Angle:  1   104.52    6.03677e-11       30
SHAKE stats (type/ave/delta/count) on step 100000
Bond:   1   0.9574    9.97646e-13       60
Angle:  1   104.52    4.46931e-11       30
SHAKE stats (type/ave/delta/count) on step 110000
Bond:   1   0.9574    1.25899e-12       60
Angle:  1   104.52    6.56684e-11       30
SHAKE stats (type/ave/delta/count) on step 120000
Bond:   1   0.9574    1.00531e-12       60
Angle:  1   104.52    6.75726e-11       30
SHAKE stats (type/ave/delta/count) on step 130000
Bond:   1   0.9574    1.27831e-12       60
Angle:  1   104.52    6.39062e-11       30
SHAKE stats (type/ave/delta/count) on step 140000
Bond:   1   0.9574    1.79645e-12       60
Angle:  1   104.52    1.1083e-10        30
SHAKE stats (type/ave/delta/count) on step 150000
Bond:   1   0.9574    3.10707e-12       60
Angle:  1   104.52    1.65144e-10       30
SHAKE stats (type/ave/delta/count) on step 160000
Bond:   1   0.9574    5.23881e-12       60
Angle:  1   104.52    1.69408e-10       30
SHAKE stats (type/ave/delta/count) on step 170000
Bond:   1   0.9574    1.65368e-12       60
Angle:  1   104.52    1.28566e-10       30
SHAKE stats (type/ave/delta/count) on step 180000
Bond:   1   0.957399  2.48778e-11       60
Angle:  1   104.52    2.26171e-09       30
SHAKE stats (type/ave/delta/count) on step 190000
Bond:   1   0.9574    8.14238e-13       60
Angle:  1   104.52    4.94538e-11       30
SHAKE stats (type/ave/delta/count) on step 200000
Bond:   1   0.9574    8.79297e-13       60
Angle:  1   104.52    5.57492e-11       30
SHAKE stats (type/ave/delta/count) on step 210000
Bond:   1   0.9574    8.11462e-13       60
Angle:  1   104.52    5.02069e-11       30
SHAKE stats (type/ave/delta/count) on step 220000
Bond:   1   0.9574    9.51239e-13       60
Angle:  1   104.52    5.23244e-11       30
SHAKE stats (type/ave/delta/count) on step 230000
Bond:   1   0.9574    1.03761e-12       60
Angle:  1   104.52    5.33333e-11       30
SHAKE stats (type/ave/delta/count) on step 240000
Bond:   1   0.9574    7.38298e-13       60
Angle:  1   104.52    6.95906e-11       30
SHAKE stats (type/ave/delta/count) on step 250000
Bond:   1   0.9574    8.38773e-13       60
Angle:  1   104.52    5.27365e-11       30
SHAKE stats (type/ave/delta/count) on step 260000
Bond:   1   0.9574    7.31193e-13       60
Angle:  1   104.52    4.09699e-11       30
SHAKE stats (type/ave/delta/count) on step 270000
Bond:   1   0.9574    9.54015e-13       60
Angle:  1   104.52    6.00693e-11       30
SHAKE stats (type/ave/delta/count) on step 280000
Bond:   1   0.957399  8.42659e-13       60
Angle:  1   104.52    8.19682e-11       30
SHAKE stats (type/ave/delta/count) on step 290000
Bond:   1   0.957399  2.07201e-12       60
Angle:  1   104.52    1.19783e-10       30
SHAKE stats (type/ave/delta/count) on step 300000
Bond:   1   0.957399  2.22888e-12       60
Angle:  1   104.52    1.38641e-10       30
SHAKE stats (type/ave/delta/count) on step 310000
Bond:   1   0.9574    1.83553e-12       60
Angle:  1   104.52    8.90168e-11       30
SHAKE stats (type/ave/delta/count) on step 320000
Bond:   1   0.9574    8.05578e-13       60
Angle:  1   104.52    4.61569e-11       30
SHAKE stats (type/ave/delta/count) on step 330000
Bond:   1   0.9574    2.7206e-11        60
Angle:  1   104.52    3.39043e-09       30
SHAKE stats (type/ave/delta/count) on step 340000
Bond:   1   0.9574    9.37139e-13       60
Angle:  1   104.52    5.02638e-11       30
SHAKE stats (type/ave/delta/count) on step 350000
Bond:   1   0.957399  8.54872e-13       60
Angle:  1   104.52    5.9643e-11        30
SHAKE stats (type/ave/delta/count) on step 360000
Bond:   1   0.957399  5.85199e-13       60
Angle:  1   104.52    5.82361e-11       30
SHAKE stats (type/ave/delta/count) on step 370000
Bond:   1   0.9574    7.98361e-13       60
Angle:  1   104.52    7.21059e-11       30
SHAKE stats (type/ave/delta/count) on step 380000
Bond:   1   0.9574    1.02351e-12       60
Angle:  1   104.52    8.27924e-11       30
SHAKE stats (type/ave/delta/count) on step 390000
Bond:   1   0.9574    1.18561e-12       60
Angle:  1   104.52    9.81402e-11       30
SHAKE stats (type/ave/delta/count) on step 400000
Bond:   1   0.957399  8.15459e-13       60
Angle:  1   104.52    7.79181e-11       30
SHAKE stats (type/ave/delta/count) on step 410000
Bond:   1   0.957399  8.09131e-13       60
Angle:  1   104.52    6.74731e-11       30
SHAKE stats (type/ave/delta/count) on step 420000
Bond:   1   0.9574    3.39342e-11       60
Angle:  1   104.52    2.94364e-09       30
SHAKE stats (type/ave/delta/count) on step 430000
Bond:   1   0.957399  2.98017e-11       60
Angle:  1   104.52    1.95222e-09       30
SHAKE stats (type/ave/delta/count) on step 440000
Bond:   1   0.957399  2.25797e-12       60
Angle:  1   104.52    1.3533e-10        30
SHAKE stats (type/ave/delta/count) on step 450000
Bond:   1   0.957399  2.16327e-12       60
Angle:  1   104.52    1.37604e-10       30
SHAKE stats (type/ave/delta/count) on step 460000
Bond:   1   0.9574    1.13454e-12       60
Angle:  1   104.52    1.12365e-10       30
SHAKE stats (type/ave/delta/count) on step 470000
Bond:   1   0.9574    1.09235e-12       60
Angle:  1   104.52    9.8396e-11        30
SHAKE stats (type/ave/delta/count) on step 480000
Bond:   1   0.9574    1.14886e-12       60
Angle:  1   104.52    6.48583e-11       30
SHAKE stats (type/ave/delta/count) on step 490000
Bond:   1   0.9574    7.90701e-13       60
Angle:  1   104.52    5.53797e-11       30
SHAKE stats (type/ave/delta/count) on step 500000
Bond:   1   0.9574    1.06137e-12       60
Angle:  1   104.52    6.43183e-11       30
SHAKE stats (type/ave/delta/count) on step 510000
Bond:   1   0.9574    1.03828e-12       60
Angle:  1   104.52    8.91731e-11       30
SHAKE stats (type/ave/delta/count) on step 520000
Bond:   1   0.9574    8.76743e-13       60
Angle:  1   104.52    7.74918e-11       30
SHAKE stats (type/ave/delta/count) on step 530000
Bond:   1   0.9574    9.41025e-13       60
Angle:  1   104.52    6.21583e-11       30
SHAKE stats (type/ave/delta/count) on step 540000
Bond:   1   0.9574    8.47655e-13       60
Angle:  1   104.52    7.17932e-11       30
SHAKE stats (type/ave/delta/count) on step 550000
Bond:   1   0.9574    8.53762e-13       60
Angle:  1   104.52    5.40439e-11       30
SHAKE stats (type/ave/delta/count) on step 560000
Bond:   1   0.9574    1.05593e-12       60
Angle:  1   104.52    9.17453e-11       30
SHAKE stats (type/ave/delta/count) on step 570000
Bond:   1   0.9574    1.14431e-12       60
Angle:  1   104.52    7.17648e-11       30
SHAKE stats (type/ave/delta/count) on step 580000
Bond:   1   0.957399  1.16296e-12       60
Angle:  1   104.52    1.15477e-10       30
SHAKE stats (type/ave/delta/count) on step 590000
Bond:   1   0.957399  1.73794e-12       60
Angle:  1   104.52    1.13857e-10       30
SHAKE stats (type/ave/delta/count) on step 600000
Bond:   1   0.957399  1.60183e-12       60
Angle:  1   104.52    9.46585e-11       30
SHAKE stats (type/ave/delta/count) on step 610000
Bond:   1   0.957399  4.00827e-11       60
Angle:  1   104.52    2.97347e-09       30
SHAKE stats (type/ave/delta/count) on step 620000
Bond:   1   0.9574    1.01608e-12       60
Angle:  1   104.52    8.31051e-11       30
SHAKE stats (type/ave/delta/count) on step 630000
Bond:   1   0.9574    1.04217e-12       60
Angle:  1   104.52    8.37588e-11       30
SHAKE stats (type/ave/delta/count) on step 640000
Bond:   1   0.9574    4.20121e-11       60
Angle:  1   104.52    2.41745e-09       30
SHAKE stats (type/ave/delta/count) on step 650000
Bond:   1   0.9574    1.35647e-12       60
Angle:  1   104.52    7.45359e-11       30
SHAKE stats (type/ave/delta/count) on step 660000
Bond:   1   0.957399  1.99374e-12       60
Angle:  1   104.52    1.95357e-10       30
SHAKE stats (type/ave/delta/count) on step 670000
Bond:   1   0.9574    2.73745e-11       60
Angle:  1   104.52    1.37834e-09       30
SHAKE stats (type/ave/delta/count) on step 680000
Bond:   1   0.957399  2.24032e-12       60
Angle:  1   104.52    1.08031e-10       30
SHAKE stats (type/ave/delta/count) on step 690000
Bond:   1   0.9574    1.49958e-12       60
Angle:  1   104.52    1.31166e-10       30
SHAKE stats (type/ave/delta/count) on step 700000
Bond:   1   0.957399  1.8332e-12        60
Angle:  1   104.52    8.7681e-11        30
SHAKE stats (type/ave/delta/count) on step 710000
Bond:   1   0.957399  1.88272e-12       60
Angle:  1   104.52    1.6739e-10        30
SHAKE stats (type/ave/delta/count) on step 720000
Bond:   1   0.9574    1.7002e-12        60
Angle:  1   104.52    8.60041e-11       30
SHAKE stats (type/ave/delta/count) on step 730000
Bond:   1   0.9574    1.0858e-12        60
Angle:  1   104.52    7.95666e-11       30
SHAKE stats (type/ave/delta/count) on step 740000
Bond:   1   0.9574    8.55649e-13       60
Angle:  1   104.52    6.10498e-11       30
SHAKE stats (type/ave/delta/count) on step 750000
Bond:   1   0.9574    7.52731e-13       60
Angle:  1   104.52    7.14664e-11       30
SHAKE stats (type/ave/delta/count) on step 760000
Bond:   1   0.957401  1.0536e-12        60
Angle:  1   104.52    6.28972e-11       30
SHAKE stats (type/ave/delta/count) on step 770000
Bond:   1   0.9574    1.25322e-12       60
Angle:  1   104.52    1.05359e-10       30
SHAKE stats (type/ave/delta/count) on step 780000
Bond:   1   0.9574    2.2965e-12        60
Angle:  1   104.52    2.34792e-10       30
SHAKE stats (type/ave/delta/count) on step 790000
Bond:   1   0.957399  2.13896e-12       60
Angle:  1   104.52    1.24771e-10       30
SHAKE stats (type/ave/delta/count) on step 800000
Bond:   1   0.957399  4.49362e-11       60
Angle:  1   104.52    2.26159e-09       30
SHAKE stats (type/ave/delta/count) on step 810000
Bond:   1   0.9574    1.1614e-12        60
Angle:  1   104.52    7.44933e-11       30
SHAKE stats (type/ave/delta/count) on step 820000
Bond:   1   0.9574    8.78186e-13       60
Angle:  1   104.52    9.06937e-11       30
SHAKE stats (type/ave/delta/count) on step 830000
Bond:   1   0.957399  9.1871e-13        60
Angle:  1   104.52    5.94582e-11       30
SHAKE stats (type/ave/delta/count) on step 840000
Bond:   1   0.9574    9.58678e-13       60
Angle:  1   104.52    7.01164e-11       30
SHAKE stats (type/ave/delta/count) on step 850000
Bond:   1   0.957399  7.7105e-13        60
Angle:  1   104.52    7.43654e-11       30
SHAKE stats (type/ave/delta/count) on step 860000
Bond:   1   0.957398  9.69114e-13       60
Angle:  1   104.52    9.66622e-11       30
SHAKE stats (type/ave/delta/count) on step 870000
Bond:   1   0.957399  1.00675e-12       60
Angle:  1   104.52    8.48814e-11       30
SHAKE stats (type/ave/delta/count) on step 880000
Bond:   1   0.9574    1.01219e-12       60
Angle:  1   104.52    8.24514e-11       30
SHAKE stats (type/ave/delta/count) on step 890000
Bond:   1   0.957399  7.81708e-13       60
Angle:  1   104.52    5.92593e-11       30
SHAKE stats (type/ave/delta/count) on step 900000
Bond:   1   0.957399  1.56064e-12       60
Angle:  1   104.52    8.91021e-11       30
SHAKE stats (type/ave/delta/count) on step 910000
Bond:   1   0.9574    3.05804e-11       60
Angle:  1   104.52    2.43583e-09       30
SHAKE stats (type/ave/delta/count) on step 920000
Bond:   1   0.9574    3.09164e-12       60
Angle:  1   104.52    2.44924e-10       30
SHAKE stats (type/ave/delta/count) on step 930000
Bond:   1   0.9574    1.93134e-12       60
Angle:  1   104.52    1.06368e-10       30
SHAKE stats (type/ave/delta/count) on step 940000
Bond:   1   0.957399  7.35523e-13       60
Angle:  1   104.52    8.34888e-11       30
SHAKE stats (type/ave/delta/count) on step 950000
Bond:   1   0.957399  8.42548e-13       60
Angle:  1   104.52    7.34843e-11       30
SHAKE stats (type/ave/delta/count) on step 960000
Bond:   1   0.9574    8.31113e-13       60
Angle:  1   104.52    5.14859e-11       30
SHAKE stats (type/ave/delta/count) on step 970000
Bond:   1   0.9574    6.0052e-13        60
Angle:  1   104.52    5.18838e-11       30
SHAKE stats (type/ave/delta/count) on step 980000
Bond:   1   0.9574    2.64544e-12       60
Angle:  1   104.52    1.72946e-10       30
SHAKE stats (type/ave/delta/count) on step 990000
Bond:   1   0.957399  2.22562e-11       60
Angle:  1   104.52    2.1686e-09        30
SHAKE stats (type/ave/delta/count) on step 1000000
Bond:   1   0.9574    1.77713e-12       60
Angle:  1   104.52    1.2065e-10        30
SHAKE stats (type/ave/delta/count) on step 1010000
Bond:   1   0.957399  2.53353e-12       60
Angle:  1   104.52    1.34079e-10       30
SHAKE stats (type/ave/delta/count) on step 1020000
Bond:   1   0.9574    4.22142e-11       60
Angle:  1   104.52    1.99616e-09       30
SHAKE stats (type/ave/delta/count) on step 1030000
Bond:   1   0.957401  1.79912e-12       60
Angle:  1   104.52    1.43103e-10       30
SHAKE stats (type/ave/delta/count) on step 1040000
Bond:   1   0.957399  1.83831e-12       60
Angle:  1   104.52    1.74794e-10       30
SHAKE stats (type/ave/delta/count) on step 1050000
Bond:   1   0.9574    1.11677e-12       60
Angle:  1   104.52    9.66054e-11       30
SHAKE stats (type/ave/delta/count) on step 1060000
Bond:   1   0.9574    8.92175e-13       60
Angle:  1   104.52    8.17977e-11       30
SHAKE stats (type/ave/delta/count) on step 1070000
Bond:   1   0.9574    4.32029e-11       60
Angle:  1   104.52    5.8477e-09        30
SHAKE stats (type/ave/delta/count) on step 1080000
Bond:   1   0.957399  9.56568e-13       60
Angle:  1   104.52    6.65352e-11       30
SHAKE stats (type/ave/delta/count) on step 1090000
Bond:   1   0.9574    1.02351e-12       60
Angle:  1   104.52    7.47633e-11       30
SHAKE stats (type/ave/delta/count) on step 1100000
Bond:   1   0.9574    3.2267e-11        60
Angle:  1   104.52    2.66742e-09       30
SHAKE stats (type/ave/delta/count) on step 1110000
Bond:   1   0.9574    2.90589e-11       60
Angle:  1   104.52    3.45995e-09       30
SHAKE stats (type/ave/delta/count) on step 1120000
Bond:   1   0.957401  2.12197e-12       60
Angle:  1   104.52    1.67802e-10       30
SHAKE stats (type/ave/delta/count) on step 1130000
Bond:   1   0.9574    1.10656e-12       60
Angle:  1   104.52    9.96891e-11       30
SHAKE stats (type/ave/delta/count) on step 1140000
Bond:   1   0.9574    3.46969e-11       60
Angle:  1   104.52    2.36348e-09       30
SHAKE stats (type/ave/delta/count) on step 1150000
Bond:   1   0.9574    6.3094e-13        60
Angle:  1   104.52    8.76952e-11       30
SHAKE stats (type/ave/delta/count) on step 1160000
Bond:   1   0.9574    8.4166e-13        60
Angle:  1   104.52    9.58522e-11       30
SHAKE stats (type/ave/delta/count) on step 1170000
Bond:   1   0.957401  8.4488e-13        60
Angle:  1   104.52    1.29219e-10       30
SHAKE stats (type/ave/delta/count) on step 1180000
Bond:   1   0.9574    3.28226e-12       60
Angle:  1   104.52    1.87498e-10       30
SHAKE stats (type/ave/delta/count) on step 1190000
Bond:   1   0.9574    1.69886e-12       60
Angle:  1   104.52    1.13033e-10       30
SHAKE stats (type/ave/delta/count) on step 1200000
Bond:   1   0.9574    1.84208e-12       60
Angle:  1   104.52    1.10418e-10       30
SHAKE stats (type/ave/delta/count) on step 1210000
Bond:   1   0.9574    4.20691e-11       60
Angle:  1   104.52    3.72047e-09       30
SHAKE stats (type/ave/delta/count) on step 1220000
Bond:   1   0.957399  1.08136e-12       60
Angle:  1   104.52    1.10674e-10       30
SHAKE stats (type/ave/delta/count) on step 1230000
Bond:   1   0.9574    1.79423e-12       60
Angle:  1   104.52    1.43785e-10       30
SHAKE stats (type/ave/delta/count) on step 1240000
Bond:   1   0.9574    3.70126e-12       60
Angle:  1   104.52    2.06114e-10       30
SHAKE stats (type/ave/delta/count) on step 1250000
Bond:   1   0.957401  1.46749e-12       60
Angle:  1   104.52    1.57684e-10       30
SHAKE stats (type/ave/delta/count) on step 1260000
Bond:   1   0.9574    7.30749e-13       60
Angle:  1   104.52    7.89555e-11       30
SHAKE stats (type/ave/delta/count) on step 1270000
Bond:   1   0.9574    1.10534e-12       60
Angle:  1   104.52    6.43752e-11       30
SHAKE stats (type/ave/delta/count) on step 1280000
Bond:   1   0.9574    9.13603e-13       60
Angle:  1   104.52    6.42189e-11       30
SHAKE stats (type/ave/delta/count) on step 1290000
Bond:   1   0.957399  1.25777e-12       60
Angle:  1   104.52    5.72697e-11       30
SHAKE stats (type/ave/delta/count) on step 1300000
Bond:   1   0.957401  2.09632e-12       60
Angle:  1   104.52    1.66608e-10       30
SHAKE stats (type/ave/delta/count) on step 1310000
Bond:   1   0.9574    3.90192e-11       60
Angle:  1   104.52    2.77007e-09       30
SHAKE stats (type/ave/delta/count) on step 1320000
Bond:   1   0.957399  1.79201e-12       60
Angle:  1   104.52    1.82482e-10       30
SHAKE stats (type/ave/delta/count) on step 1330000
Bond:   1   0.957399  1.11966e-12       60
Angle:  1   104.52    6.97753e-11       30
SHAKE stats (type/ave/delta/count) on step 1340000
Bond:   1   0.9574    1.24345e-12       60
Angle:  1   104.52    7.54028e-11       30
SHAKE stats (type/ave/delta/count) on step 1350000
Bond:   1   0.957401  1.63691e-12       60
Angle:  1   104.52    9.07079e-11       30
SHAKE stats (type/ave/delta/count) on step 1360000
Bond:   1   0.957399  1.22824e-12       60
Angle:  1   104.52    1.06667e-10       30
SHAKE stats (type/ave/delta/count) on step 1370000
Bond:   1   0.9574    1.12232e-12       60
Angle:  1   104.52    9.52269e-11       30
SHAKE stats (type/ave/delta/count) on step 1380000
Bond:   1   0.9574    3.06716e-11       60
Angle:  1   104.52    2.78686e-09       30
SHAKE stats (type/ave/delta/count) on step 1390000
Bond:   1   0.957399  2.68392e-11       60
Angle:  1   104.52    3.39868e-09       30
SHAKE stats (type/ave/delta/count) on step 1400000
Bond:   1   0.9574    1.14053e-12       60
Angle:  1   104.52    8.5862e-11        30
SHAKE stats (type/ave/delta/count) on step 1410000
Bond:   1   0.9574    8.78408e-13       60
Angle:  1   104.52    7.76765e-11       30
SHAKE stats (type/ave/delta/count) on step 1420000
Bond:   1   0.9574    1.08313e-12       60
Angle:  1   104.52    9.22569e-11       30
SHAKE stats (type/ave/delta/count) on step 1430000
Bond:   1   0.957401  1.3286e-12        60
Angle:  1   104.52    9.77707e-11       30
SHAKE stats (type/ave/delta/count) on step 1440000
Bond:   1   0.9574    1.80544e-12       60
Angle:  1   104.52    1.43572e-10       30
SHAKE stats (type/ave/delta/count) on step 1450000
Bond:   1   0.957399  2.20401e-12       60
Angle:  1   104.52    1.59702e-10       30
SHAKE stats (type/ave/delta/count) on step 1460000
Bond:   1   0.957399  1.16773e-12       60
Angle:  1   104.52    1.57328e-10       30
SHAKE stats (type/ave/delta/count) on step 1470000
Bond:   1   0.9574    1.30207e-12       60
Angle:  1   104.52    9.76428e-11       30
SHAKE stats (type/ave/delta/count) on step 1480000
Bond:   1   0.9574    8.8185e-13        60
Angle:  1   104.52    6.81837e-11       30
SHAKE stats (type/ave/delta/count) on step 1490000
Bond:   1   0.957401  4.8068e-11        60
Angle:  1   104.52    3.82276e-09       30
SHAKE stats (type/ave/delta/count) on step 1500000
Bond:   1   0.9574    9.77884e-13       60
Angle:  1   104.52    7.45501e-11       30
SHAKE stats (type/ave/delta/count) on step 1510000
Bond:   1   0.957399  3.53354e-11       60
Angle:  1   104.52    2.46052e-09       30
SHAKE stats (type/ave/delta/count) on step 1520000
Bond:   1   0.9574    2.10709e-12       60
Angle:  1   104.52    1.06255e-10       30
SHAKE stats (type/ave/delta/count) on step 1530000
Bond:   1   0.9574    2.97554e-11       60
Angle:  1   104.52    3.12056e-09       30
SHAKE stats (type/ave/delta/count) on step 1540000
Bond:   1   0.9574    1.87084e-12       60
Angle:  1   104.52    1.13445e-10       30
SHAKE stats (type/ave/delta/count) on step 1550000
Bond:   1   0.957401  2.60414e-12       60
Angle:  1   104.52    1.48631e-10       30
SHAKE stats (type/ave/delta/count) on step 1560000
Bond:   1   0.9574    2.23321e-12       60
Angle:  1   104.52    2.0168e-10        30
SHAKE stats (type/ave/delta/count) on step 1570000
Bond:   1   0.9574    2.39619e-12       60
Angle:  1   104.52    2.75051e-10       30
SHAKE stats (type/ave/delta/count) on step 1580000
Bond:   1   0.957399  1.74472e-12       60
Angle:  1   104.52    1.01011e-10       30
SHAKE stats (type/ave/delta/count) on step 1590000
Bond:   1   0.9574    4.20404e-11       60
Angle:  1   104.52    4.41874e-09       30
SHAKE stats (type/ave/delta/count) on step 1600000
Bond:   1   0.957401  1.08946e-12       60
Angle:  1   104.52    1.40815e-10       30
SHAKE stats (type/ave/delta/count) on step 1610000
Bond:   1   0.9574    1.68876e-12       60
Angle:  1   104.52    1.32161e-10       30
SHAKE stats (type/ave/delta/count) on step 1620000
Bond:   1   0.957399  3.22571e-11       60
Angle:  1   104.52    5.00845e-09       30
SHAKE stats (type/ave/delta/count) on step 1630000
Bond:   1   0.9574    3.8457e-12        60
Angle:  1   104.52    1.6496e-10        30
SHAKE stats (type/ave/delta/count) on step 1640000
Bond:   1   0.957401  2.23865e-12       60
Angle:  1   104.52    2.34905e-10       30
SHAKE stats (type/ave/delta/count) on step 1650000
Bond:   1   0.9574    1.56597e-12       60
Angle:  1   104.52    1.66239e-10       30
SHAKE stats (type/ave/delta/count) on step 1660000
Bond:   1   0.957399  1.03584e-12       60
Angle:  1   104.52    1.02602e-10       30
SHAKE stats (type/ave/delta/count) on step 1670000
Bond:   1   0.9574    1.54532e-12       60
Angle:  1   104.52    1.03611e-10       30
SHAKE stats (type/ave/delta/count) on step 1680000
Bond:   1   0.957401  8.92508e-13       60
Angle:  1   104.52    8.14993e-11       30
SHAKE stats (type/ave/delta/count) on step 1690000
Bond:   1   0.957399  9.39138e-13       60
Angle:  1   104.52    7.70655e-11       30
SHAKE stats (type/ave/delta/count) on step 1700000
Bond:   1   0.9574    1.30529e-12       60
Angle:  1   104.52    1.79e-10          30
SHAKE stats (type/ave/delta/count) on step 1710000
Bond:   1   0.9574    2.94031e-11       60
Angle:  1   104.52    2.40756e-09       30
SHAKE stats (type/ave/delta/count) on step 1720000
Bond:   1   0.9574    3.9535e-11        60
Angle:  1   104.52    3.34335e-09       30
SHAKE stats (type/ave/delta/count) on step 1730000
Bond:   1   0.9574    1.20348e-12       60
Angle:  1   104.52    1.27002e-10       30
SHAKE stats (type/ave/delta/count) on step 1740000
Bond:   1   0.9574    9.54459e-13       60
Angle:  1   104.52    1.02276e-10       30
SHAKE stats (type/ave/delta/count) on step 1750000
Bond:   1   0.957401  3.80017e-11       60
Angle:  1   104.52    1.80857e-09       30
SHAKE stats (type/ave/delta/count) on step 1760000
Bond:   1   0.9574    1.18727e-12       60
Angle:  1   104.52    1.24814e-10       30
SHAKE stats (type/ave/delta/count) on step 1770000
Bond:   1   0.957401  2.93898e-12       60
Angle:  1   104.52    1.89317e-10       30
SHAKE stats (type/ave/delta/count) on step 1780000
Bond:   1   0.957399  1.69886e-12       60
Angle:  1   104.52    1.60881e-10       30
SHAKE stats (type/ave/delta/count) on step 1790000
Bond:   1   0.9574    1.76625e-12       60
Angle:  1   104.52    1.00599e-10       30
SHAKE stats (type/ave/delta/count) on step 1800000
Bond:   1   0.9574    1.19471e-12       60
Angle:  1   104.52    9.37916e-11       30
SHAKE stats (type/ave/delta/count) on step 1810000
Bond:   1   0.957399  9.23706e-13       60
Angle:  1   104.52    8.95994e-11       30
SHAKE stats (type/ave/delta/count) on step 1820000
Bond:   1   0.9574    8.89622e-13       60
Angle:  1   104.52    1.01451e-10       30
SHAKE stats (type/ave/delta/count) on step 1830000
Bond:   1   0.9574    1.02229e-12       60
Angle:  1   104.52    1.05175e-10       30
SHAKE stats (type/ave/delta/count) on step 1840000
Bond:   1   0.9574    1.3044e-12        60
Angle:  1   104.52    1.09026e-10       30
SHAKE stats (type/ave/delta/count) on step 1850000
Bond:   1   0.957399  1.109e-12         60
Angle:  1   104.52    9.031e-11         30
SHAKE stats (type/ave/delta/count) on step 1860000
Bond:   1   0.9574    9.7089e-13        60
Angle:  1   104.52    8.68425e-11       30
SHAKE stats (type/ave/delta/count) on step 1870000
Bond:   1   0.9574    4.23659e-11       60
Angle:  1   104.52    4.15191e-09       30
SHAKE stats (type/ave/delta/count) on step 1880000
Bond:   1   0.9574    7.86704e-13       60
Angle:  1   104.52    8.91589e-11       30
SHAKE stats (type/ave/delta/count) on step 1890000
Bond:   1   0.9574    8.7963e-13        60
Angle:  1   104.52    1.22725e-10       30
SHAKE stats (type/ave/delta/count) on step 1900000
Bond:   1   0.9574    1.09379e-12       60
Angle:  1   104.52    7.67812e-11       30
SHAKE stats (type/ave/delta/count) on step 1910000
Bond:   1   0.957399  1.21947e-12       60
Angle:  1   104.52    1.31763e-10       30
SHAKE stats (type/ave/delta/count) on step 1920000
Bond:   1   0.9574    2.2522e-12        60
Angle:  1   104.52    2.69779e-10       30
SHAKE stats (type/ave/delta/count) on step 1930000
Bond:   1   0.957399  1.66955e-12       60
Angle:  1   104.52    1.4245e-10        30
SHAKE stats (type/ave/delta/count) on step 1940000
Bond:   1   0.9574    1.39178e-12       60
Angle:  1   104.52    1.26192e-10       30
SHAKE stats (type/ave/delta/count) on step 1950000
Bond:   1   0.9574    9.43134e-13       60
Angle:  1   104.52    9.36637e-11       30
SHAKE stats (type/ave/delta/count) on step 1960000
Bond:   1   0.9574    8.60201e-13       60
Angle:  1   104.52    6.2812e-11        30
SHAKE stats (type/ave/delta/count) on step 1970000
Bond:   1   0.9574    1.82443e-12       60
Angle:  1   104.52    9.59375e-11       30
SHAKE stats (type/ave/delta/count) on step 1980000
Bond:   1   0.957401  6.2531e-11        60
Angle:  1   104.52    3.43672e-09       30
SHAKE stats (type/ave/delta/count) on step 1990000
Bond:   1   0.9574    1.10001e-12       60
Angle:  1   104.52    1.19314e-10       30
SHAKE stats (type/ave/delta/count) on step 2000000
Bond:   1   0.9574    8.00471e-13       60
Angle:  1   104.52    8.90736e-11       30
Loop time of 231.116 on 1 procs for 2000000 steps with 90 atoms

write_data  tip3p.data nocoeff
System init for write_data ...
Generated 1 of 1 mixed pair_coeff terms from geometric mixing rule
